/*--------------------------------*- C++ -*----------------------------------*\
| =========                 |                                                 |
| \\      /  F ield         | OpenFOAM: The Open Source CFD Toolbox           |
|  \\    /   O peration     | Version:  v2112                                 |
|   \\  /    A nd           | Website:  www.openfoam.com                      |
|    \\/     M anipulation  |                                                 |
\*---------------------------------------------------------------------------*/
FoamFile
{
    version     2.0;
    format      ascii;
    class       dictionary;
    object      controlDict;
}
// * * * * * * * * * * * * * * * * * * * * * * * * * * * * * * * * * * * * * //

functions
{
    //#includeFunc  singleGraph

    linesample
    {
        type        sets;
        interpolationScheme pointMVC;
        writeControl timeStep;
        writeInterval 6000;
        
        //#includeEtc "caseDicts/postProcessing/graphs/sampleDict.cfg"

        setFormat   csv;

        sets 
        (
            data 
            {
                type cloud;
                axis xyz;
                points ((0.45 0.5 0)(1 0.65 0)(1 1.365 0)(1 2.1 0)(0.45 2.25 0)(2.6 0.5 0)(2.5 1.85 0)(3.75 2.25 0)(3.75 0.5 0)(1.6 1.45 0));
            }
        );

        fields  (U T);
    }
}

application     scalarTransportFoam;

startFrom       startTime;

startTime       0;

stopAt          endTime;

endTime         14400;

deltaT          0.1;

writeControl    timeStep;

writeInterval   6000;

purgeWrite      0;

writeFormat     ascii;

writePrecision  6;

writeCompression off;

timeFormat      general;

timePrecision   6;

//graphFormat     raw;

runTimeModifiable true;




// ************************************************************************* //
