/*--------------------------------*- C++ -*----------------------------------*\
| =========                 |                                                 |
| \\      /  F ield         | OpenFOAM: The Open Source CFD Toolbox           |
|  \\    /   O peration     | Version:  v2112                                 |
|   \\  /    A nd           | Website:  www.openfoam.com                      |
|    \\/     M anipulation  |                                                 |
\*---------------------------------------------------------------------------*/
FoamFile
{
    version     2.0;
    format      ascii;
    class       dictionary;
    object      controlDict;
}
// * * * * * * * * * * * * * * * * * * * * * * * * * * * * * * * * * * * * * //

functions
{
    //#includeFunc  singleGraph
    type        sets;
    interpolationScheme pointMVC;
    writeControl timeStep;
    outputInterval 100;
    
    //#includeEtc "caseDicts/postProcessing/graphs/sampleDict.cfg"

    setFormat   csv;

    sets 
    (
        data 
        {
            type cloud;
            axis xyz;
            points ((0.45 0.5 0)(1 0.65 0)(1 1.365 0)(1 2.1 0));
        }
    );

    fields  (U T);
}

application     scalarTransportFoam;

startFrom       startTime;

startTime       0;

stopAt          endTime;

endTime         30;

deltaT          0.1;

writeControl    timeStep;

writeInterval   100;

purgeWrite      0;

writeFormat     ascii;

writePrecision  6;

writeCompression off;

timeFormat      general;

timePrecision   6;

//graphFormat     raw;

runTimeModifiable true;




// ************************************************************************* //
